/*---------------------------------------------------------------------------*\
| =========                 |                                                 |
| \\      /  F ield         | OpenFOAM: The Open Source CFD Toolbox           |
|  \\    /   O peration     | Version:  v1912                                 |
|   \\  /    A nd           | Website:  www.openfoam.com                      |
|    \\/     M anipulation  |                                                 |
\*---------------------------------------------------------------------------*/
Build  : _f3950763fe-20191219 OPENFOAM=1912
Arch   : "LSB;label=32;scalar=64"
Exec   : blockMesh -case /mnt/d/calc/GlobFOAM/ejectorCase
Date   : Apr 22 2021
Time   : 13:27:14
Host   : DESKTOP-422AT27
PID    : 4086
I/O    : uncollated
Case   : /mnt/d/calc/GlobFOAM/ejectorCase
nProcs : 1
trapFpe: Floating point exception trapping enabled (FOAM_SIGFPE).
fileModificationChecking : Monitoring run-time modified files using timeStampMaster (fileModificationSkew 10)
allowSystemOperations : Allowing user-supplied system call operations

// * * * * * * * * * * * * * * * * * * * * * * * * * * * * * * * * * * * * * //
Create time

Creating block mesh from "system/blockMeshDict"
Creating block edges
No non-planar block faces defined
Creating topology blocks
Creating topology patches

Creating block mesh topology
--> FOAM Warning :
    From function Foam::polyMesh::polyMesh(const Foam::IOobject&, Foam::pointField&&, const cellShapeList&, const faceListList&, const wordList&, const Foam::PtrList<Foam::dictionary>&, const Foam::word&, const Foam::word&, bool)
    in file meshes/polyMesh/polyMeshFromShapeMesh.C at line 867
    Found 8 undefined faces in mesh; adding to default patch defaultFaces

Check topology

	Basic statistics
		Number of internal faces : 2
		Number of boundary faces : 14
		Number of defined boundary faces : 14
		Number of undefined boundary faces : 0
	Checking patch -> block consistency

Creating block offsets
Creating merge list...
Deleting polyMesh directory "constant/polyMesh"

Creating polyMesh from blockMesh
Creating patches
Creating cells
Creating points with scale 0.001
    Block 0 cell size :
        i : 0.001 .. 0.001
        j : 0.001 .. 0.001
        k : 0.001 .. 0.001

    Block 1 cell size :
        i : 0.00105836 .. 0.00105836
        j : 0.001 .. 0.001
        k : 0.001 .. 0.001

    Block 2 cell size :
        i : 0.001 .. 0.001
        j : 0.001 .. 0.001
        k : 0.001 .. 0.001


There are no merge patch pairs

Writing polyMesh with 0 cellZones
----------------
Mesh Information
----------------
  boundingBox: (-0.03 -0.0025 -0.0005) (0.03 0.0025 0.0005)
  nPoints: 732
  nCells: 300
  nFaces: 1265
  nInternalFaces: 535
----------------
Patches
----------------
  patch 0 (start: 535 size: 5) name: inlet
  patch 1 (start: 540 size: 5) name: outlet
  patch 2 (start: 545 size: 25) name: upInWall
  patch 3 (start: 570 size: 25) name: lwInWall
  patch 4 (start: 595 size: 25) name: upOtWall
  patch 5 (start: 620 size: 25) name: lwOtWall
  patch 6 (start: 645 size: 620) name: defaultFaces

End

Getting LinuxMem: [Errno 2] No such file or directory: '/proc/4083/status'
