Clearing /lustre/unicluster/home/d.ryazanov/calc/constantAngleSlopeTurbKWCoefficientsCalibrationTemplate/constantAngleSlopeTurbKWUProfileInlet180321GLZ/PyFoam.blockMesh.logfile
Clearing /lustre/unicluster/home/d.ryazanov/calc/constantAngleSlopeTurbKWCoefficientsCalibrationTemplate/constantAngleSlopeTurbKWUProfileInlet180321GLZ/PyFoam.setFields.logfile
/*---------------------------------------------------------------------------*\
| =========                 |                                                 |
| \\      /  F ield         | OpenFOAM: The Open Source CFD Toolbox           |
|  \\    /   O peration     | Version:  v1912                                 |
|   \\  /    A nd           | Website:  www.openfoam.com                      |
|    \\/     M anipulation  |                                                 |
\*---------------------------------------------------------------------------*/
Build  : v1912 OPENFOAM=1912
Arch   : "LSB;label=32;scalar=64"
Exec   : blockMesh -case /lustre/unicluster/home/d.ryazanov/calc/constantAngleSlopeTurbKWCoefficientsCalibrationTemplate/constantAngleSlopeTurbKWUProfileInlet180321GLZ
Date   : Jul 01 2021
Time   : 19:10:23
Host   : bl022.unicluster.ru
PID    : 32541
I/O    : uncollated
Case   : /lustre/unicluster/home/d.ryazanov/calc/constantAngleSlopeTurbKWCoefficientsCalibrationTemplate/constantAngleSlopeTurbKWUProfileInlet180321GLZ
nProcs : 1
trapFpe: Floating point exception trapping enabled (FOAM_SIGFPE).
fileModificationChecking : Monitoring run-time modified files using timeStampMaster (fileModificationSkew 10)
allowSystemOperations : Allowing user-supplied system call operations

// * * * * * * * * * * * * * * * * * * * * * * * * * * * * * * * * * * * * * //
Create time

Creating block mesh from "system/blockMeshDict"
Creating block edges
No non-planar block faces defined
Creating topology blocks
Creating topology patches

Creating block mesh topology

Check topology

	Basic statistics
		Number of internal faces : 1
		Number of boundary faces : 10
		Number of defined boundary faces : 10
		Number of undefined boundary faces : 0
	Checking patch -> block consistency

Creating block offsets
Creating merge list...

Creating polyMesh from blockMesh
Creating patches
Creating cells
Creating points with scale 0.001
    Block 0 cell size :
        i : 0.001 .. 0.001
        j : 0.001 .. 0.001
        k : 0.000333333 .. 0.000333333

    Block 1 cell size :
        i : 0.001 .. 0.001
        j : 0.001 .. 0.001
        k : 0.000333333 .. 0.000333333


There are no merge patch pairs

Writing polyMesh with 0 cellZones
----------------
Mesh Information
----------------
  boundingBox: (0 0 0) (0.59 0.005 0.015)
  nPoints: 163116
  nCells: 132750
  nFaces: 427975
  nInternalFaces: 368525
----------------
Patches
----------------
  patch 0 (start: 368525 size: 150) name: leftInletWall
  patch 1 (start: 368675 size: 75) name: leftWall
  patch 2 (start: 368750 size: 225) name: rightWall
  patch 3 (start: 368975 size: 2950) name: lowerWall
  patch 4 (start: 371925 size: 2950) name: atmosphere
  patch 5 (start: 374875 size: 53100) name: sides

End

/*---------------------------------------------------------------------------*\
| =========                 |                                                 |
| \\      /  F ield         | OpenFOAM: The Open Source CFD Toolbox           |
|  \\    /   O peration     | Version:  v1912                                 |
|   \\  /    A nd           | Website:  www.openfoam.com                      |
|    \\/     M anipulation  |                                                 |
\*---------------------------------------------------------------------------*/
Build  : v1912 OPENFOAM=1912
Arch   : "LSB;label=32;scalar=64"
Exec   : setFields -case /lustre/unicluster/home/d.ryazanov/calc/constantAngleSlopeTurbKWCoefficientsCalibrationTemplate/constantAngleSlopeTurbKWUProfileInlet180321GLZ
Date   : Jul 01 2021
Time   : 19:10:26
Host   : bl022.unicluster.ru
PID    : 32548
I/O    : uncollated
Case   : /lustre/unicluster/home/d.ryazanov/calc/constantAngleSlopeTurbKWCoefficientsCalibrationTemplate/constantAngleSlopeTurbKWUProfileInlet180321GLZ
nProcs : 1
trapFpe: Floating point exception trapping enabled (FOAM_SIGFPE).
fileModificationChecking : Monitoring run-time modified files using timeStampMaster (fileModificationSkew 10)
allowSystemOperations : Allowing user-supplied system call operations

// * * * * * * * * * * * * * * * * * * * * * * * * * * * * * * * * * * * * * //
Create time

Create mesh for time = 0

Reading setFieldsDict

Setting field default values
    Setting internal values of volScalarField alpha.water

Setting field region values

End

